OPT_V10/Two_days_MYC3/powerflow_results_t34.txt
Pandapower Network Debug Info
==================================================

BUS:
       vm_pu  va_degree      p_mw    q_mvar
0   0.997175   0.318148 -0.001135  0.001090
1   0.995652   0.516406 -0.000934  0.002008
2   0.993911   0.677186 -0.000302  0.002835
3   0.994776   0.473014  0.000272  0.004227
4   0.999910   0.001350  0.007126  0.008874
5   0.999899   0.001408  0.010764  0.008956
6   0.999891   0.001474  0.008523  0.009014
7   0.999947   0.001073  0.000000  0.000000
8   0.999947   0.001079  0.000000  0.000000
9   1.000000   0.000000 -0.024421 -0.042074
10  1.000000   0.000006  0.000000  0.000000
--------------------------------------------------

LINE:
   p_from_mw  q_from_mvar   p_to_mw  q_to_mvar         pl_mw       ql_mvar  i_from_ka   i_to_ka      i_ka  vm_from_pu  va_from_degree  vm_to_pu  va_to_degree  loading_percent
0   0.024411     0.038074 -0.024409  -0.038072  2.000802e-06  1.560058e-06   0.001741  0.001741  0.001741    1.000000        0.000006  0.999947      0.001073         0.756874
1   0.026414     0.026846 -0.026413  -0.026845  1.096915e-06  8.552829e-07   0.001450  0.001450  0.001450    0.999947        0.001073  0.999910      0.001350         0.630286
2  -0.002014     0.010227  0.002065  -0.010187  5.082179e-05  3.962659e-05   0.015046  0.015046  0.015046    0.999947        0.001079  0.997175      0.318148         6.541590
3  -0.019286    -0.017970  0.019287   0.017971  2.403599e-07  1.874126e-07   0.001015  0.001015  0.001015    0.999899        0.001408  0.999910      0.001350         0.441189
4  -0.008523    -0.009014  0.008523   0.009014  7.527808e-08  5.869556e-08   0.000478  0.000478  0.000478    0.999891        0.001474  0.999899      0.001408         0.207621
5   0.001229    -0.004849 -0.001214   0.004860  1.493256e-05  1.164316e-05   0.007251  0.007251  0.007251    0.995652        0.516406  0.997175      0.318148         3.152793
6  -0.000272    -0.004227  0.000284   0.004237  1.210757e-05  9.440469e-06   0.006146  0.006146  0.006146    0.994776        0.473014  0.997175      0.318148         2.672356
7   0.000302    -0.002835 -0.000294   0.002840  7.440906e-06  5.801797e-06   0.004140  0.004140  0.004140    0.993911        0.677186  0.995652      0.516406         1.799855
--------------------------------------------------

TRAFO:
    p_hv_mw  q_hv_mvar   p_lv_mw  q_lv_mvar    pl_mw  ql_mvar   i_hv_ka   i_lv_ka  vm_hv_pu  va_hv_degree  vm_lv_pu  va_lv_degree  loading_percent
0 -0.002004   0.011227  0.002014  -0.010227  0.00001    0.001  0.000439  0.015046  0.999947      0.001073  0.999947      0.001079         0.114049
1  0.024421   0.042074 -0.024411  -0.038074  0.00001    0.004  0.000401  0.001741  1.000000      0.000000  1.000000      0.000006         0.121620
--------------------------------------------------
